 xtb: 6.5.1 (b24c23e)
          11152215593D

  9  6  0     0  0            999 V2000
    3.0049    1.9258   -1.0836 O   0  0  0  0  0  0  0  0  0  0  0  0
    2.4711    1.3823   -1.6930 H   0  0  0  0  0  0  0  0  0  0  0  0
    3.7153    2.2981   -1.6076 H   0  0  0  0  0  0  0  0  0  0  0  0
    0.3557    2.6215   -0.5043 O   0  0  0  0  0  0  0  0  0  0  0  0
    0.2113    3.5669   -0.5627 H   0  0  0  0  0  0  0  0  0  0  0  0
    1.3128    2.4947   -0.3962 H   0  0  0  0  0  0  0  0  0  0  0  0
    0.9238    0.7589   -2.4762 O   0  0  0  0  0  0  0  0  0  0  0  0
    0.6208   -0.1104   -2.2097 H   0  0  0  0  0  0  0  0  0  0  0  0
    0.4458    1.3952   -1.9152 H   0  0  0  0  0  0  0  0  0  0  0  0
  1  2  1  0  0  0  0
  1  3  1  0  0  0  0
  4  5  1  0  0  0  0
  4  6  1  0  0  0  0
  7  8  1  0  0  0  0
  7  9  1  0  0  0  0
M  END
